Version 4
SHEET 1 880 680
WIRE -768 -400 -768 -416
WIRE -656 -400 -768 -400
WIRE -608 -400 -656 -400
WIRE -480 -400 -528 -400
WIRE -352 -400 -400 -400
WIRE -208 -400 -352 -400
WIRE -32 -400 -208 -400
WIRE 16 -400 -32 -400
WIRE -352 -336 -352 -400
WIRE -352 -224 -352 -256
WIRE -768 -160 -768 -400
WIRE -656 -144 -656 -400
WIRE -208 -144 -208 -400
WIRE -32 -144 -32 -400
WIRE -352 -112 -352 -144
WIRE -240 -112 -352 -112
WIRE -352 -48 -352 -112
WIRE -352 64 -352 32
WIRE -768 208 -768 -80
WIRE -656 208 -656 -80
WIRE -656 208 -768 208
WIRE -352 208 -352 144
WIRE -352 208 -656 208
WIRE -208 208 -208 -80
WIRE -208 208 -352 208
WIRE -32 208 -32 -80
WIRE -32 208 -208 208
WIRE -768 256 -768 208
FLAG -768 256 0
FLAG 16 -400 Vout
IOPIN 16 -400 Out
FLAG -768 -416 Vin
SYMBOL voltage -768 -176 R0
WINDOW 123 0 0 Left 2
WINDOW 39 0 0 Left 0
SYMATTR InstName V1
SYMATTR Value 24
SYMBOL tl431 -224 -144 R0
WINDOW 3 24 60 Left 0
SYMATTR InstName U1
SYMBOL res -512 -416 R90
WINDOW 0 0 56 VBottom 2
WINDOW 3 32 56 VTop 2
SYMATTR InstName R1
SYMATTR Value 910
SYMBOL res -384 -416 R90
WINDOW 0 0 56 VBottom 2
WINDOW 3 32 56 VTop 2
SYMATTR InstName R2
SYMATTR Value 910
SYMBOL res -368 -352 R0
SYMATTR InstName R3
SYMATTR Value 10k
SYMBOL res -368 -240 R0
SYMATTR InstName R4
SYMATTR Value 0
SYMBOL res -368 -64 R0
SYMATTR InstName R5
SYMATTR Value 150
SYMBOL res -368 48 R0
SYMATTR InstName R6
SYMATTR Value 10k
SYMBOL cap -672 -144 R0
SYMATTR InstName C1
SYMATTR Value 100µF
SYMBOL cap -48 -144 R0
SYMATTR InstName C2
SYMATTR Value 100nF
TEXT -920 -56 Left 2 !.dc V1 0 24 1
TEXT -200 -56 Left 2 !.lib tl431.lib
